   1 'GENSAL' 1     3.5000      0.25000E-01  0.50000E-01   2.0200
          0.0000       1.4200      0.84000      0.36000      0.25000
         0.21000      0.14300      0.31800      /
   1 'MNLEX2' 1     1.0000       1.0000       2.0000       5.0000
          2.0000       1.5500       1.9300      /
   1 'ESST1A' 1          3            1       0.0000      0.10000
        -0.10000       3.8000       10.000       0.0000       0.0000
          158.00       0.0000       3.4200       0.0000       3.4200
          0.0000      0.33000E-01   0.0000       1.0000       3.0000
          2.0000    /
   1 'WEHGOV' 1          0      0.50000E-01   0.0000       1.0000
          5.0000      0.60000      0.20000      0.10000      0.10000
         0.10000      0.20000      0.87000E-01 -0.10000      0.97000
          0.0000       0.0000      0.50000       0.0000       0.0000
         0.40000E-01   0.0000      0.60000E-01   1.0000       1.0000
          1.0000       0.0000      0.60000E-01   1.0000       1.0000
          1.0000       0.0000      0.60000E-01   1.0000       1.0000
          1.0000       1.0000       1.0000       1.0000       1.0000
          1.0000       0.0000       0.0000      0.97200       1.0000
          1.0000       1.0000       1.0000       1.0000       1.0000
          1.0000      /